13U
     RDKit          3D

 64 66  0  0  0  0  0  0  0  0999 V2000
   -0.7821    0.7444   -1.3690 C   0  0  0  0  0  0  0  0  0  0  0  0
    0.3662    0.3275   -1.5514 O   0  0  0  0  0  0  0  0  0  0  0  0
   -2.0005   -0.0542   -1.8538 C   0  0  0  0  0  0  0  0  0  0  0  0
   -2.7187   -0.6130   -0.7004 N   0  0  0  0  0  0  0  0  0  0  0  0
   -3.9718   -1.2914   -1.0687 C   0  0  0  0  0  0  0  0  0  0  0  0
   -4.3179   -2.3013    0.0449 C   0  0  0  0  0  0  0  0  0  0  0  0
   -4.8158   -1.7323    1.3752 C   0  0  0  0  0  0  0  0  0  0  0  0
   -6.3421   -1.6506    1.5081 C   0  0  0  0  0  0  0  0  0  0  0  0
   -6.9630   -0.3563    0.9901 C   0  0  0  0  0  0  0  0  0  0  0  0
   -7.4556   -0.3876   -0.4572 C   0  0  0  0  0  0  0  0  0  0  0  0
   -6.4736   -0.8627   -1.5268 C   0  0  0  0  0  0  0  0  0  0  0  0
   -5.0722   -0.2642   -1.3981 C   0  0  0  0  0  0  0  0  0  0  0  0
   -1.0147    1.9320   -0.6968 N   0  0  0  0  0  0  0  0  0  0  0  0
    0.1010    2.7624   -0.2110 C   0  0  2  0  0  0  0  0  0  0  0  0
    0.8086    2.1130    1.0011 C   0  0  0  0  0  0  0  0  0  0  0  0
    0.5847    2.4230    2.1680 O   0  0  0  0  0  0  0  0  0  0  0  0
   -0.5541    4.1000    0.1616 C   0  0  0  0  0  0  0  0  0  0  0  0
   -1.8220    4.1300   -0.6786 C   0  0  0  0  0  0  0  0  0  0  0  0
   -2.2643    2.6768   -0.6675 C   0  0  0  0  0  0  0  0  0  0  0  0
    1.7052    1.1255    0.6488 N   0  0  0  0  0  0  0  0  0  0  0  0
    2.3150    0.2823    1.6465 C   0  0  0  0  0  0  0  0  0  0  0  0
    3.6088   -0.2858    1.1414 C   0  0  0  0  0  0  0  0  0  0  0  0
    3.6551   -1.5163    0.4874 C   0  0  0  0  0  0  0  0  0  0  0  0
    4.7845   -2.0749   -0.0090 N   0  0  0  0  0  0  0  0  0  0  0  0
    5.9273   -1.3474    0.1416 C   0  0  0  0  0  0  0  0  0  0  0  0
    7.1628   -1.9877   -0.4249 C   0  0  0  0  0  0  0  0  0  0  0  0
    8.3358   -1.4723   -0.2277 N   0  0  0  0  0  0  0  0  0  0  0  0
    7.0313   -3.1444   -1.1476 N   0  0  0  0  0  0  0  0  0  0  0  0
    5.9894   -0.1114    0.7691 C   0  0  0  0  0  0  0  0  0  0  0  0
    4.8074    0.4260    1.2718 C   0  0  0  0  0  0  0  0  0  0  0  0
    9.0257   -2.0417   -0.7252 H   0  0  0  0  0  0  0  0  0  0  0  0
   -1.6313   -0.8681   -2.4893 H   0  0  0  0  0  0  0  0  0  0  0  0
   -2.6211    0.5891   -2.4823 H   0  0  0  0  0  0  0  0  0  0  0  0
   -2.8919    0.1091   -0.0036 H   0  0  0  0  0  0  0  0  0  0  0  0
   -3.7875   -1.8955   -1.9684 H   0  0  0  0  0  0  0  0  0  0  0  0
   -3.4073   -2.8826    0.2546 H   0  0  0  0  0  0  0  0  0  0  0  0
   -5.0285   -3.0477   -0.3312 H   0  0  0  0  0  0  0  0  0  0  0  0
   -4.3463   -0.7710    1.6092 H   0  0  0  0  0  0  0  0  0  0  0  0
   -4.4764   -2.4262    2.1566 H   0  0  0  0  0  0  0  0  0  0  0  0
   -6.5619   -1.6936    2.5842 H   0  0  0  0  0  0  0  0  0  0  0  0
   -6.8286   -2.5287    1.0688 H   0  0  0  0  0  0  0  0  0  0  0  0
   -6.2800    0.4858    1.1484 H   0  0  0  0  0  0  0  0  0  0  0  0
   -7.8399   -0.1313    1.6128 H   0  0  0  0  0  0  0  0  0  0  0  0
   -8.3528   -1.0174   -0.5145 H   0  0  0  0  0  0  0  0  0  0  0  0
   -7.7876    0.6262   -0.7165 H   0  0  0  0  0  0  0  0  0  0  0  0
   -6.4503   -1.9562   -1.5526 H   0  0  0  0  0  0  0  0  0  0  0  0
   -6.8895   -0.5701   -2.5002 H   0  0  0  0  0  0  0  0  0  0  0  0
   -4.8251    0.1991   -2.3625 H   0  0  0  0  0  0  0  0  0  0  0  0
   -5.0593    0.5635   -0.6798 H   0  0  0  0  0  0  0  0  0  0  0  0
    0.8194    2.8989   -1.0293 H   0  0  0  0  0  0  0  0  0  0  0  0
   -0.8268    4.1504    1.2217 H   0  0  0  0  0  0  0  0  0  0  0  0
    0.1035    4.9497   -0.0487 H   0  0  0  0  0  0  0  0  0  0  0  0
   -1.5811    4.4441   -1.7016 H   0  0  0  0  0  0  0  0  0  0  0  0
   -2.5818    4.8082   -0.2801 H   0  0  0  0  0  0  0  0  0  0  0  0
   -2.7779    2.4318    0.2689 H   0  0  0  0  0  0  0  0  0  0  0  0
   -2.9178    2.4456   -1.5102 H   0  0  0  0  0  0  0  0  0  0  0  0
    1.5533    0.7127   -0.2738 H   0  0  0  0  0  0  0  0  0  0  0  0
    1.6046   -0.5176    1.8901 H   0  0  0  0  0  0  0  0  0  0  0  0
    2.4844    0.8492    2.5700 H   0  0  0  0  0  0  0  0  0  0  0  0
    2.7518   -2.1039    0.3337 H   0  0  0  0  0  0  0  0  0  0  0  0
    7.7773   -3.8194   -1.0352 H   0  0  0  0  0  0  0  0  0  0  0  0
    6.1056   -3.5614   -1.0338 H   0  0  0  0  0  0  0  0  0  0  0  0
    6.9309    0.4207    0.8578 H   0  0  0  0  0  0  0  0  0  0  0  0
    4.8223    1.4000    1.7571 H   0  0  0  0  0  0  0  0  0  0  0  0
 15 16  2  0
 15 20  1  0
 14 15  1  0
 20 21  1  0
 21 22  1  0
 22 30  1  0
 22 23  2  0
 29 30  2  0
 25 29  1  0
 25 26  1  0
 24 25  2  0
 26 27  2  0
 26 28  1  0
 23 24  1  0
 14 17  1  0
 13 14  1  0
 17 18  1  0
 18 19  1  0
 13 19  1  0
  1 13  1  0
  1  2  2  0
  1  3  1  0
  3  4  1  0
  4  5  1  0
  5  6  1  0
  5 12  1  0
  6  7  1  0
  7  8  1  0
  8  9  1  0
  9 10  1  0
 10 11  1  0
 11 12  1  0
 27 31  1  0
  3 32  1  0
  3 33  1  0
  4 34  1  0
  5 35  1  0
  6 36  1  0
  6 37  1  0
  7 38  1  0
  7 39  1  0
  8 40  1  0
  8 41  1  0
  9 42  1  0
  9 43  1  0
 10 44  1  0
 10 45  1  0
 11 46  1  0
 11 47  1  0
 12 48  1  0
 12 49  1  0
 14 50  1  6
 17 51  1  0
 17 52  1  0
 18 53  1  0
 18 54  1  0
 19 55  1  0
 19 56  1  0
 20 57  1  0
 21 58  1  0
 21 59  1  0
 23 60  1  0
 28 61  1  0
 28 62  1  0
 29 63  1  0
 30 64  1  0
M  END
