13U
     RDKit          3D

 68 70  0  0  0  0  0  0  0  0999 V2000
   -1.5140    0.9173   -0.8989 C   0  0  0  0  0  0  0  0  0  0  0  0
   -0.7867   -0.0827   -0.9029 O   0  0  0  0  0  0  0  0  0  0  0  0
   -3.0497    0.8161   -0.8482 C   0  0  0  0  0  0  0  0  0  0  0  0
   -3.4692   -0.5885   -1.0142 N   0  0  0  0  0  0  0  0  0  0  0  0
   -4.8142   -0.8682   -0.4756 C   0  0  0  0  0  0  0  0  0  0  0  0
   -5.0113   -2.3996   -0.4261 C   0  0  0  0  0  0  0  0  0  0  0  0
   -5.6731   -2.9147    0.8581 C   0  0  0  0  0  0  0  0  0  0  0  0
   -7.1486   -2.5763    1.0763 C   0  0  0  0  0  0  0  0  0  0  0  0
   -7.4304   -1.0991    1.3508 C   0  0  0  0  0  0  0  0  0  0  0  0
   -7.9565   -0.3006    0.1585 C   0  0  0  0  0  0  0  0  0  0  0  0
   -7.3239   -0.5651   -1.2037 C   0  0  0  0  0  0  0  0  0  0  0  0
   -5.8601   -0.1562   -1.3581 C   0  0  0  0  0  0  0  0  0  0  0  0
   -0.9756    2.1855   -0.8849 N   0  0  0  0  0  0  0  0  0  0  0  0
    0.4722    2.3727   -0.8847 C   0  0  2  0  0  0  0  0  0  0  0  0
    1.0849    1.8967    0.4476 C   0  0  0  0  0  0  0  0  0  0  0  0
    0.6386    2.2212    1.5464 O   0  0  0  0  0  0  0  0  0  0  0  0
    0.6710    3.8867   -1.0285 C   0  0  0  0  0  0  0  0  0  0  0  0
   -0.6579    4.3869   -1.5825 C   0  0  0  0  0  0  0  0  0  0  0  0
   -1.6753    3.4545   -0.9474 C   0  0  0  0  0  0  0  0  0  0  0  0
    2.2052    1.1067    0.2924 N   0  0  0  0  0  0  0  0  0  0  0  0
    2.8106    0.4748    1.4391 C   0  0  0  0  0  0  0  0  0  0  0  0
    4.1443   -0.1161    1.0628 C   0  0  0  0  0  0  0  0  0  0  0  0
    4.2308   -1.4329    0.5801 C   0  0  0  0  0  0  0  0  0  0  0  0
    5.4580   -1.9795    0.1656 C   0  0  0  0  0  0  0  0  0  0  0  0
    6.6120   -1.1830    0.2616 C   0  0  0  0  0  0  0  0  0  0  0  0
    7.9528   -1.6888   -0.1321 C   0  0  0  0  0  0  0  0  0  0  0  0
    8.7104   -1.0387   -0.9562 N   0  0  0  0  0  0  0  0  0  0  0  0
    8.4321   -2.8532    0.3861 N   0  0  0  0  0  0  0  0  0  0  0  0
    6.5334    0.1335    0.7349 C   0  0  0  0  0  0  0  0  0  0  0  0
    5.3051    0.6648    1.1280 C   0  0  0  0  0  0  0  0  0  0  0  0
    5.4918   -3.3871   -0.3610 C   0  0  0  0  0  0  0  0  0  0  0  0
   -3.4761    1.4089   -1.6624 H   0  0  0  0  0  0  0  0  0  0  0  0
   -3.3660    1.2182    0.1208 H   0  0  0  0  0  0  0  0  0  0  0  0
   -2.7669   -1.1715   -0.5513 H   0  0  0  0  0  0  0  0  0  0  0  0
   -4.8474   -0.4706    0.5431 H   0  0  0  0  0  0  0  0  0  0  0  0
   -5.5470   -2.7656   -1.3112 H   0  0  0  0  0  0  0  0  0  0  0  0
   -4.0313   -2.8979   -0.4621 H   0  0  0  0  0  0  0  0  0  0  0  0
   -5.5887   -4.0099    0.8512 H   0  0  0  0  0  0  0  0  0  0  0  0
   -5.0903   -2.5788    1.7258 H   0  0  0  0  0  0  0  0  0  0  0  0
   -7.7624   -2.9619    0.2547 H   0  0  0  0  0  0  0  0  0  0  0  0
   -7.4653   -3.1377    1.9659 H   0  0  0  0  0  0  0  0  0  0  0  0
   -8.2003   -1.0396    2.1329 H   0  0  0  0  0  0  0  0  0  0  0  0
   -6.5558   -0.6067    1.7882 H   0  0  0  0  0  0  0  0  0  0  0  0
   -9.0289   -0.5161    0.0632 H   0  0  0  0  0  0  0  0  0  0  0  0
   -7.8895    0.7695    0.3931 H   0  0  0  0  0  0  0  0  0  0  0  0
   -7.8963    0.0133   -1.9425 H   0  0  0  0  0  0  0  0  0  0  0  0
   -7.4659   -1.6092   -1.5004 H   0  0  0  0  0  0  0  0  0  0  0  0
   -5.5992   -0.3219   -2.4135 H   0  0  0  0  0  0  0  0  0  0  0  0
   -5.7895    0.9277   -1.1985 H   0  0  0  0  0  0  0  0  0  0  0  0
    0.8940    1.8284   -1.7365 H   0  0  0  0  0  0  0  0  0  0  0  0
    0.8711    4.3647   -0.0615 H   0  0  0  0  0  0  0  0  0  0  0  0
    1.5089    4.1270   -1.6906 H   0  0  0  0  0  0  0  0  0  0  0  0
   -0.8463    5.4388   -1.3532 H   0  0  0  0  0  0  0  0  0  0  0  0
   -0.6678    4.2662   -2.6725 H   0  0  0  0  0  0  0  0  0  0  0  0
   -2.5978    3.3942   -1.5281 H   0  0  0  0  0  0  0  0  0  0  0  0
   -1.9120    3.7558    0.0791 H   0  0  0  0  0  0  0  0  0  0  0  0
    2.2875    0.6096   -0.5877 H   0  0  0  0  0  0  0  0  0  0  0  0
    2.1281   -0.3018    1.8044 H   0  0  0  0  0  0  0  0  0  0  0  0
    2.9239    1.2083    2.2461 H   0  0  0  0  0  0  0  0  0  0  0  0
    3.3247   -2.0351    0.5133 H   0  0  0  0  0  0  0  0  0  0  0  0
    8.2284   -0.2031   -1.3040 H   0  0  0  0  0  0  0  0  0  0  0  0
    9.4301   -2.9460    0.2253 H   0  0  0  0  0  0  0  0  0  0  0  0
    8.1605   -3.0616    1.3392 H   0  0  0  0  0  0  0  0  0  0  0  0
    7.4299    0.7446    0.8083 H   0  0  0  0  0  0  0  0  0  0  0  0
    5.2557    1.6922    1.4882 H   0  0  0  0  0  0  0  0  0  0  0  0
    5.8468   -4.0727    0.4134 H   0  0  0  0  0  0  0  0  0  0  0  0
    4.4944   -3.7146   -0.6778 H   0  0  0  0  0  0  0  0  0  0  0  0
    6.1390   -3.4588   -1.2416 H   0  0  0  0  0  0  0  0  0  0  0  0
 15 16  2  0
 15 20  1  0
 14 15  1  0
 20 21  1  0
 21 22  1  0
 22 30  1  0
 22 23  2  0
 29 30  2  0
 25 29  1  0
 25 26  1  0
 24 25  2  0
 26 27  2  0
 26 28  1  0
 23 24  1  0
 14 17  1  0
 13 14  1  0
 17 18  1  0
 18 19  1  0
 13 19  1  0
  1 13  1  0
  1  2  2  0
  1  3  1  0
  3  4  1  0
  4  5  1  0
  5  6  1  0
  5 12  1  0
  6  7  1  0
  7  8  1  0
  8  9  1  0
  9 10  1  0
 10 11  1  0
 11 12  1  0
 24 31  1  0
  3 32  1  0
  3 33  1  0
  4 34  1  0
  5 35  1  0
  6 36  1  0
  6 37  1  0
  7 38  1  0
  7 39  1  0
  8 40  1  0
  8 41  1  0
  9 42  1  0
  9 43  1  0
 10 44  1  0
 10 45  1  0
 11 46  1  0
 11 47  1  0
 12 48  1  0
 12 49  1  0
 14 50  1  6
 17 51  1  0
 17 52  1  0
 18 53  1  0
 18 54  1  0
 19 55  1  0
 19 56  1  0
 20 57  1  0
 21 58  1  0
 21 59  1  0
 23 60  1  0
 27 61  1  0
 28 62  1  0
 28 63  1  0
 29 64  1  0
 30 65  1  0
 31 66  1  0
 31 67  1  0
 31 68  1  0
M  END
